LAMMPS (29 Sep 2021 - Update 2)
# bulk water

units           metal
boundary        p p p
newton 		off
atom_style      atomic

neighbor        2.0 bin
neigh_modify    delay 0 every 1 check yes

read_data	nvt_cluster.lmp
Reading data file ...
  triclinic box = (-8.2824990 -10.584499 -4.5975000) to (31.782500 29.444500 35.457500) with tilt (0.0000000 0.0000000 0.0000000)
  reading atoms ...
  66 atoms
mass 		1 2
mass		2 16

variable	sysvol		equal vol
variable	sysmass		equal mass(all)/6.0221367e+23
variable	sysdensity	equal v_sysmass/v_sysvol/1.0e-24

pair_style	nequip
pair_coeff  	* * water-deploy.pth H O

velocity        all create 300.0 2345678 rot no dist gaussian
fix             1 all nvt temp 300.0 300.0 0.05
timestep        0.0005
thermo_style    custom step pe ke etotal v_sysdensity temp press vol
thermo          10
dump            101 all xyz 10 water.xyz
dump_modify     101 element H O
fix             extra all print 1 "$(step), $(ke), $(pe), $(etotal), $(temp), $(press), $(vol)" file logfile screen no

run             50000
  update every 1 steps, delay 0 steps, check yes
Step PotEng KinEng TotEng v_sysdensity Temp Press Volume
0   -13167.643    2.5205728   -13165.122  0.011373797          300    41.910394    64238.679
Averages over the last 2501 of 5001 rows, steps 25000 to 50000:
PotEng KinEng TotEng v_sysdensity Temp Press Volume
-13168.5 2.51225 -13166 0.0113738 299.009 41.772 64238.7
Loop time of 10536.6 on 1 procs for 50000 steps with 66 atoms

##nvt
#reset_timestep  0
#fix             3 all nvt temp 300.0 300.0 0.5
#timestep        0.0005
##compute         msd all msd
##fix msd all ave/time 1 1 50 c_msd[4] file msddumpfile
##fix pl all plumed plumedfile plumed.dat outfile p.log
#thermo_style    custom step pe ke etotal v_sysdensity temp press vol
#thermo          1
#dump		2 all custom 100 water.dump id type x y z
#
#run             100000
##write_data 	ipb.data
##write_restart 	ipb.restart
